-------------------------------------------------------
          Amber 18 SANDER                              2018
          -------------------------------------------------------

  [-O]verwriting output

File Assignments:

 Here is the input file:

Density equilibration
&cntrl
  imin= 0,                       ! Run molecular dynamics.
  nstlim=15000,                  ! Number of MD-steps to be performed.
  dt=0.002,                      ! Time step (ps)
  irest=1,                       ! Restart the simulation and read coordinates and velocities from the restart file provided in -c
  ntx=5,                         ! Initial file contains coordinates and velocities.
  ntpr=500, ntwx=500, ntwr=500,  ! Output options
  cut=8.0,                       ! non-bond cut off
  temp0=298,                     ! Temperature
  ntt=3, gamma_ln=3.0,           ! Temperature scaling using Langevin dynamics with the collision frequency in gamma_ln (psâˆ’1)
  ntb=2,                         ! Periodic conditiond at constant pressure
  ntc=2, ntf=2,                  ! Constrain lengths of bonds having hydrogen atoms (SHAKE)
  ntp=1, taup=2.0,               ! Pressure scaling
  iwrap=1, ioutfm=1,             ! Output trajectory options
/

--------------------------------------------------------------------------------
   1.  RESOURCE   USE:
--------------------------------------------------------------------------------

 getting box info from netcdf restart file
 NATOM  =   56037 NTYPES =      25 NBONH =   53669 MBONA  =    2417
 NTHETH =    5236 MTHETA =    3284 NPHIH =   10790 MPHIA  =   10502
 NHPARM =       0 NPARM  =       0 NNB   =   94242 NRES   =   17427
 NBONA  =    2417 NTHETA =    3284 NPHIA =   10502 NUMBND =      82
 NUMANG =     179 NPTRA  =     216 NATYP =      47 NPHB   =       1
 IFBOX  =       2 NMXRS  =      34 IFCAP =       0 NEXTRA =       0
 NCOPY  =       0

     BOX TYPE: TRUNCATED OCTAHEDRON

--------------------------------------------------------------------------------
   2.  CONTROL  DATA  FOR  THE  RUN
--------------------------------------------------------------------------------

GWS

General flags:
     imin    =       0, nmropt  =       0

Nature and format of input:
     ntx     =       5, irest   =       1, ntrx    =       1

Nature and format of output:
     ntxo    =       2, ntpr    =     500, ntrx    =       1, ntwr    =     500
     iwrap   =       1, ntwx    =     500, ntwv    =       0, ntwe    =       0
     ioutfm  =       1, ntwprt  =       0, idecomp =       0, rbornstat=      0

Potential function:
     ntf     =       2, ntb     =       2, igb     =       0, nsnb    =      25
     ipol    =       0, gbsa    =       0, iesp    =       0
     dielc   =   1.00000, cut     =   8.00000, intdiel =   1.00000

Frozen or restrained atoms:
     ibelly  =       0, ntr     =       0

Molecular dynamics:
     nstlim  =     15000, nscm    =      1000, nrespa  =         1
     t       =   0.00000, dt      =   0.00200, vlimit  =  20.00000

Langevin dynamics temperature regulation:
     ig      =   71277
     temp0   = 298.00000, tempi   =   0.00000, gamma_ln=   3.00000

Pressure regulation:
     ntp     =       1
     pres0   =   1.00000, comp    =  44.60000, taup    =   2.00000

SHAKE:
     ntc     =       2, jfastw  =       0
     tol     =   0.00001

Ewald parameters:
     verbose =       0, ew_type =       0, nbflag  =       1, use_pme =       1
     vdwmeth =       1, eedmeth =       1, netfrc  =       1
     Box X =   93.373   Box Y =   93.373   Box Z =   93.373
     Alpha =  109.471   Beta  =  109.471   Gamma =  109.471
     NFFT1 =   96       NFFT2 =   96       NFFT3 =   96
     Cutoff=    8.000   Tol   =0.100E-04
     Ewald Coefficient =  0.34864
     Interpolation order =    4

--------------------------------------------------------------------------------
   3.  ATOMIC COORDINATES AND VELOCITIES
--------------------------------------------------------------------------------

GWS
 begin time read from input coords =    30.000 ps

 Number of triangulated 3-point waters found:    17118

     Sum of charges from parm topology file =  -0.00000016
     Forcing neutrality...

--------------------------------------------------------------------------------
   4.  RESULTS
 NSTEP =      500   TIME(PS) =      31.000  TEMP(K) =   297.59  PRESS =  -908.6
 Etot   =   -134564.3535  EKtot   =     33838.2225  EPtot      =   -168402.5760
 BOND   =       923.0336  ANGLE   =      2391.0731  DIHED      =      3832.8953
 1-4 NB =      1105.1733  1-4 EEL =     11958.4715  VDWAALS    =     20591.0868
 EELEC  =   -209204.3097  EHBOND  =         0.0000  RESTRAINT  =         0.0000
 EKCMT  =     15325.5944  VIRIAL  =     27358.2333  VOLUME     =    613342.9110
                                                    Density    =         0.9265
 Ewald error estimate:   0.9920E-05
 ------------------------------------------------------------------------------

      A V E R A G E S   O V E R   15000 S T E P S

 NSTEP =    15000   TIME(PS) =      60.000  TEMP(K) =   298.30  PRESS =  -167.9
 Etot   =   -137198.2097  EKtot   =     33919.8742  EPtot      =   -171118.0839
 BOND   =       898.9493  ANGLE   =      2362.3099  DIHED      =      3859.3668
 1-4 NB =      1096.7153  1-4 EEL =     11995.9073  VDWAALS    =     21423.7400
 EELEC  =   -212755.0726  EHBOND  =         0.0000  RESTRAINT  =         0.0000
 EKCMT  =     15263.5265  VIRIAL  =     17411.6176  VOLUME     =    569482.6761
                                                    Density    =         0.9986
 Ewald error estimate:   0.5091E-04
 ------------------------------------------------------------------------------

      R M S  F L U C T U A T I O N S

 NSTEP =    15000   TIME(PS) =      60.000  TEMP(K) =     1.23  PRESS =   277.7
 Etot   =      1047.7515  EKtot   =       140.4219  EPtot      =      1032.0854
 BOND   =        25.8179  ANGLE   =        38.0806  DIHED      =        19.7624
 1-4 NB =        13.4472  1-4 EEL =        35.7179  VDWAALS    =       312.2064
 EELEC  =      1294.6913  EHBOND  =         0.0000  RESTRAINT  =         0.0000
 EKCMT  =        95.4749  VIRIAL  =      3612.0665  VOLUME     =     15258.6268
                                                    Density    =         0.0254
 Ewald error estimate:   0.3474E-04
 ------------------------------------------------------------------------------
